data_Co4B2Os2
loop_
_atom_type_symbol
_atom_type_electronegativity
_atom_type_radius
_atom_type_ionic_radius
Co 1.8800 1.3500 0.7683
B 2.0400 0.8500 0.4100
Os 2.2000 1.3000 0.6730
_symmetry_space_group_name_H-M I-4m2
_cell_length_a 3.6393
_cell_length_b 3.6393
_cell_length_c 6.2877
_cell_angle_alpha 90.0000
_cell_angle_beta 90.0000
_cell_angle_gamma 90.0000
_symmetry_Int_Tables_number 119
_chemical_formula_structural Co2BOs
_chemical_formula_sum 'Co4 B2 Os2'
_cell_volume 83.2785
_cell_formula_units_Z 2
loop_
_symmetry_equiv_pos_site_id
_symmetry_equiv_pos_as_xyz
1 'x, y, z'
loop_
_atom_site_type_symbol
_atom_site_label
_atom_site_symmetry_multiplicity
_atom_site_fract_x
_atom_site_fract_y
_atom_site_fract_z
_atom_site_occupancy
Co Co0 2 0.0000 0.0000 0.0000 1
Co Co1 2 0.0000 0.5000 0.7500 1
B B2 2 0.0000 0.5000 0.2500 1
Os Os3 2 0.0000 0.0000 0.5000 1
_atom_type_ionic_radius
_symmetry_space_group_name_H-M 9 000
O 00.8 0.20.00.80.9 0.00 00590.500.0.00.0 0.1 1.0 1.7 1 0 0.0.0.00 0000.21.0.0
_cell_length_b 0.0.2 2 1.00.0.2 162 0 0 000.32000.0.00
O 0.8 000.0000161.80.00.1 1.0.3 00.00.00.0 0.8167 0000
_symmetry_Int_Tables_number 0 05
_cell_angle_beta 00.0.0.60.00.00.00.000 1.0.00.0 0.00
loop_
loop_
_symmetry_Int_Tables_number 00 1.90.40
_symmetry_Int_Tables_number 000.000.8 00.2 0 1 1.0
_cell_length_b 1.0.0.0
_cell_angle_gamma 000.00.0
_chemical_formula_sum 0.4 0.000.00 0.0
O6 90
_cell_angle_gamma 000
_cell_angle_gamma 1.2 100.70.0 00
_cell_length_b 0.0
loop_
_chemical_formula_structural 2 00.0.0.260.69 1000.0 0000.2 1.00.1.00.0.90000000
_chemical_formula_sum 0 0 0.94 9 0.0.0
_cell_angle_beta 0.000.0
_symmetry_Int_Tables_number8 00
_symmetry_space_group_name_H-M 1 0
_cell_length_a 0 0000.0
_cell_length_c 000.00000.0
_symmetry_Int_Tables_number 1.50
loop_
_cell_length_a 1.0.0000.0 00.00.0000.90 0
O 00.0
loop_
O1.8 000.6000.0 0.0 1 '
_cell_angle_gamma 0.36500
_symmetry_Int_Tables_number 0
_cell_length_a 00000
_symmetry_Int_Tables_number 00.00.0
_chemical_formula_structural 0.30 160.0.2 0.3
O10.4 0 00.00
_symmetry_space_group_name_H-M 000.50.1.40
_symmetry_space_group_name_H-M 0
_chemical_formula_sum 0 000.00
_cell_angle_gamma 0
_cell_length_a 1.0.0
_cell_length_c 240000.0.900.0
_chemical_formula_structural 2500 1 00.00
O 0000 0.19 001.0.20.0 0000
_cell_length_b 0
loop_
_cell_angle_gamma 1.0
O4 00
_chemical_formula_structural 0.142 00
_symmetry_Int_Tables_number 0.0.0.90.0000.00
_symmetry_space_group_name_H-M 0
_chemical_formula_structural 1.00.0.0.0
_cell_angle_beta 0.700.0000000
loop_
loop_
_chemical_formula_structural 0.0
loop_
_chemical_formula_structural 00000.0000.00
_symmetry_Int_Tables_number 2 1.000
_symmetry_space_group_name_H-M 00.0
_cell_length_b 0000
_chemical_formula_structural 00
_cell_angle_gamma 0000
_cell_length_b 1
_chemical_formula_sum 000
_symmetry_space_group_name_H-M 0
_cell_angle_beta 00.560.0.10000
_chemical_formula_sum 0.0000
_chemical_formula_sum 00
_symmetry_space_group_name_H-M 0
_cell_angle_gamma 0
_cell_angle_gamma 1.0
_symmetry_space_group_name_H-M '
_chemical_formula_structural 0000.00000000
_symmetry_space_group_name_H-M 0.0000
_chemical_formula_sum '
_cell_angle_beta 10
_cell_length_a 0
loop_
_cell_angle_beta 0.0
_cell_length_c 0.4 1.00
_symmetry_Int_Tables_number 000.0000
_chemical_formula_sum 0
_cell_angle_beta 1 0
_cell_angle_gamma 00000
_chemical_formula_structural 0 000.000.0
_chemical_formula_structural O 00.98 00
loop_
_cell_length_a 0.00
_chemical_formula_structural 0
_cell_length_c O1.00.34
_symmetry_Int_Tables_number 10000
_chemical_formula_structural 1.30000.0
_cell_angle_gamma 0000.3
_cell_angle_beta 00
_chemical_formula_sum 400000.500.800.80.00
_symmetry_space_group_name_H-M 00
_chemical_formula_structural 0
_symmetry_Int_Tables_number 1.00000
_cell_length_a 1.30 00
_symmetry_space_group_name_H-M 0 0
_symmetry_Int_Tables_number 000.200000.0 0000.0
_symmetry_Int_Tables_number 00
_chemical_formula_structural 1.0.1.000
_chemical_formula_structural 0.721.200.0
_chemical_formula_structural 0.0
_symmetry_Int_Tables_number 0.00000.0
_cell_angle_beta 0
_chemical_formula_structural 000 1000
_chemical_formula_sum 00
loop_
_chemical_formula_sum 0.80.850
_chemical_formula_structural 00.600
_cell_angle_gamma 0000.00.00.0
loop_
_chemical_formula_structural 00
_chemical_formula_sum 1.0.50 129000
_symmetry_space_group_name_H-M 0
loop_
_cell_length_a 000.0
_cell_length_b 1.0000
_chemical_formula_structural 00
_cell_angle_beta 19
_cell_length_b 0 0
_chemical_formula_structural 0.0
_cell_angle_gamma O2000.00.0
_cell_length_c 1.500.0
_chemical_formula_structural 0
_chemical_formula_structural 1.3.00.2000.00.000
_cell_length_a 000
_cell_length_c 1.00
_chemical_formula_structural 0
_cell_length_a 0.00
_chemical_formula_sum 000
_cell_angle_gamma 000
loop_
_cell_angle_beta 0
_cell_length_b 9486
_cell_length_c 0.1.00.0000
_cell_length_b 0.00
loop_
_symmetry_Int_Tables_number 000
_cell_angle_gamma 0.60000.0
_symmetry_Int_Tables_number 2900.00
_cell_angle_beta 0000
_symmetry_space_group_name_H-M '
loop_
_chemical_formula_structural '
_symmetry_Int_Tables_number 0000
_cell_length_b 0000000.25
loop_
_symmetry_space_group_name_H-M 00
_cell_volume '
loop_
loop_
loop_
_chemical_formula_sum 1690.424 00.5000.5420
_chemical_formula_structural 0.00
loop_
loop_
_symmetry_Int_Tables_number 00.00.0
_chemical_formula_sum 0.0
_symmetry_space_group_name_H-M 0.0.000
_cell_volume 1.0
_cell_length_a 0
_cell_angle_beta 00000.50 1.2
_symmetry_space_group_name_H-M 0
_cell_angle_gamma 1450000.000000
loop_
_symmetry_space_group_name_H-M 'x, 0 1.24
_chemical_formula_sum 00200
_chemical_formula_sum 2 0.000.20.0 100
_atom_site_symmetry_multiplicity
loop_
_chemical_formula_structural 000
loop_
_cell_volume 90
_chemical_formula_structural 1 z'
_chemical_formula_structural y, 10
_cell_angle_gamma 0 0.0.00
loop_
_chemical_formula_structural 0.00.000
_atom_site_label
_symmetry_Int_Tables_number 000.0
_cell_volume 1.0
_chemical_formula_sum 1 0.0.0
_symmetry_Int_Tables_number 1.0
_symmetry_Int_Tables_number 10 0
_atom_site_symmetry_multiplicity
_atom_site_label
_chemical_formula_sum 10.00.00
_atom_site_symmetry_multiplicity
_chemical_formula_structural y, 0
_chemical_formula_structural 00000
_chemical_formula_structural 0
_atom_site_label
_atom_site_label
_symmetry_Int_Tables_number 0
loop_
_cell_angle_beta 1.0.0.21.1.200
_cell_length_a 10000 0000 0.3 0.000000.00
_chemical_formula_structural 00.0.0
_cell_angle_gamma 1.2
_atom_site_symmetry_multiplicity
_cell_volume 1.0000
_cell_angle_gamma 0 0000 1.00
_cell_angle_beta 16000.0.2 000
_chemical_formula_structural 0 0
_symmetry_Int_Tables_number 'x, 'x, 9000.24 0000.8
_atom_site_fract_y
_symmetry_Int_Tables_number 00.00 00
_cell_length_a 00
_chemical_formula_structural 0000
_symmetry_Int_Tables_number 0000
loop_
_atom_site_label
_atom_site_label
_cell_angle_beta 2
_chemical_formula_structural '
_cell_length_a 00
_cell_volume 0
_chemical_formula_sum 1.0
_cell_length_a 0
_atom_site_symmetry_multiplicity
_atom_site_type_symbol
loop_
_chemical_formula_sum 0
_atom_site_label
loop_
loop_
_cell_angle_gamma 0
loop_
_chemical_formula_sum 000.3
_chemical_formula_sum 1.0.8 00
_chemical_formula_sum 1.0.50 00 00
_atom_site_fract_x
loop_
_chemical_formula_sum 'Cs1.00.02 1.20 '
loop_
_atom_site_label
_atom_site_symmetry_multiplicity
_atom_site_type_symbol
_atom_site_fract_z
_atom_site_fract_x
_chemical_formula_sum 0000000
_atom_site_symmetry_multiplicity
loop_
_chemical_formula_sum 000
loop_
_atom_site_fract_z
_atom_site_fract_z
_atom_site_fract_y
loop_
_atom_site_label
_atom_site_symmetry_multiplicity
_atom_site_fract_x
loop_
_chemical_formula_structural 0.0000
_atom_site_symmetry_multiplicity
loop_
loop_
_chemical_formula_structural 0
_atom_site_label
loop_
_atom_site_fract_z
_atom_site_fract_y
_atom_site_fract_z
loop_
_atom_site_fract_x
_atom_site_occupancy
_atom_site_label
_atom_site_type_symbol
_chemical_formula_sum 000
_atom_site_fract_y
_atom_site_symmetry_multiplicity
_atom_site_fract_y
_atom_site_occupancy
_atom_site_fract_z
_atom_site_fract_y
_atom_site_fract_x
_atom_site_fract_y
_atom_site_symmetry_multiplicity
_atom_site_occupancy
_atom_site_label
_atom_site_symmetry_multiplicity
_atom_site_fract_z
loop_
_atom_site_label
loop_
_atom_site_symmetry_multiplicity
_atom_site_label
loop_
_atom_site_fract_x
_atom_site_fract_z
_atom_site_occupancy
_atom_site_label
_atom_site_type_symbol
_atom_site_fract_x
_atom_site_label
_atom_site_label
_atom_site_fract_x
_chemical_formula_structural 'x, 0
loop_
_atom_site_occupancy
_atom_site_occupancy
_symmetry_equiv_pos_as_xyz
_atom_site_symmetry_multiplicity
loop_
_atom_site_fract_y
_atom_site_fract_y
_atom_site_occupancy
_atom_site_type_symbol
_chemical_formula_structural 0
_atom_site_occupancy
_symmetry_equiv_pos_as_xyz
_atom_site_type_symbol
_atom_site_fract_z
_atom_site_symmetry_multiplicity
_atom_site_occupancy
_atom_site_label
_atom_site_symmetry_multiplicity
_atom_site_type_symbol
_atom_site_fract_x
loop_
_atom_site_symmetry_multiplicity
_atom_site_fract_z
_atom_site_occupancy
loop_
_atom_site_fract_y
_atom_site_fract_z
_atom_site_type_symbol
_chemical_formula_structural 0.1.00.0
_atom_site_occupancy
_atom_site_symmetry_multiplicity
_atom_site_fract_y
loop_
loop_
_atom_site_label
_chemical_formula_structural 00 1.900.0000
_atom_site_type_symbol
_atom_site_fract_x
_symmetry_equiv_pos_as_xyz
_atom_site_occupancy
loop_
_chemical_formula_structural y, 00.00000
loop_
_atom_site_fract_y
_atom_site_label
_atom_site_occupancy
_atom_site_fract_y'x, 00 000000
_atom_site_fract_x
_atom_site_fract_y
_atom_site_symmetry_multiplicity
_atom_site_fract_y
_atom_site_symmetry_multiplicity
_atom_site_type_symbol
_atom_site_fract_x
_atom_site_fract_y
loop_
_symmetry_equiv_pos_as_xyz
_atom_site_fract_y
loop_
_symmetry_equiv_pos_as_xyz
_atom_site_symmetry_multiplicity
loop_
_atom_site_fract_y
_atom_site_fract_y
_atom_site_symmetry_multiplicity
_atom_site_fract_z
_atom_site_fract_z
_atom_site_occupancy
_atom_site_fract_y
_atom_site_fract_x
_atom_site_symmetry_multiplicity
_atom_site_symmetry_multiplicity
_atom_site_fract_x
_atom_site_occupancy
_atom_site_fract_z
loop_
_symmetry_equiv_pos_site_id
_atom_site_type_symbol
_atom_site_occupancy
_atom_site_symmetry_multiplicity
_atom_site_fract_x
loop_
_atom_site_label
_atom_site_fract_z
_symmetry_equiv_pos_as_xyz
_atom_site_label
loop_
_atom_site_label
_cell_volume 0000000
_symmetry_equiv_pos_site_id
_atom_site_fract_z
_atom_site_fract_x
_atom_site_fract_y
_atom_site_fract_y
_atom_site_fract_x
loop_
loop_
_atom_site_label
_atom_site_fract_x
_atom_site_occupancy
_atom_site_fract_z
_atom_site_fract_y
_symmetry_equiv_pos_site_id
_atom_site_fract_x
loop_
_atom_site_occupancy
_symmetry_equiv_pos_as_xyz
loop_
_atom_site_occupancy
_atom_site_fract_x
_atom_site_symmetry_multiplicity
_atom_site_fract_z
_atom_site_occupancy
_atom_site_fract_z
_atom_site_label
_atom_site_label
_atom_site_fract_x
_atom_site_type_symbol
_atom_site_fract_y
loop_
_atom_site_symmetry_multiplicity
_atom_site_fract_z
_symmetry_equiv_pos_as_xyz
_atom_site_fract_y
_symmetry_equiv_pos_as_xyz
loop_
_atom_site_type_symbol
_atom_site_occupancy
_atom_site_fract_y
_atom_site_symmetry_multiplicity
loop_
_symmetry_equiv_pos_as_xyz
_atom_site_fract_y
_atom_site_fract_x
_atom_site_fract_y
_atom_site_type_symbol
_atom_site_fract_x
_atom_site_fract_z
_atom_site_fract_y
loop_
_atom_site_occupancy
_atom_site_fract_z
_atom_site_fract_z
_atom_site_fract_x
_atom_site_symmetry_multiplicity
_atom_site_occupancy
_atom_site_fract_z
_atom_site_fract_x
_atom_site_occupancy
_atom_site_occupancy
_atom_site_fract_y
_atom_site_fract_x
_atom_site_symmetry_multiplicity
_atom_site_fract_x
_atom_site_symmetry_multiplicity
_atom_site_fract_z
_atom_site_label
loop_
_atom_site_fract_z
_atom_site_label
_atom_site_fract_z
_atom_site_fract_x
_atom_site_fract_x
_atom_site_fract_x
_atom_site_fract_y
_atom_site_label
_atom_site_symmetry_multiplicity
_atom_site_occupancy
_atom_site_fract_z
_atom_site_occupancy
_atom_site_occupancy
_atom_site_symmetry_multiplicity
_atom_site_type_symbol
_atom_site_type_symbol
loop_
_atom_site_fract_y
_atom_site_fract_y
_atom_site_fract_y
_atom_site_fract_z
_atom_site_symmetry_multiplicity
loop_
_atom_site_fract_z
_atom_site_label
_atom_site_occupancy
_atom_site_fract_y
_atom_site_fract_x
_atom_site_label
_atom_site_occupancy
_atom_site_symmetry_multiplicity
_atom_site_label
_atom_site_occupancy
_atom_site_fract_y
_atom_site_label
_atom_site_label
_atom_site_type_symbol
_atom_site_fract_y
_atom_site_occupancy
_atom_site_fract_x
_atom_site_occupancy
_atom_site_label
_atom_site_type_symbol
_atom_site_fract_z
_atom_site_fract_y
_atom_site_occupancy
_atom_site_fract_y
_atom_site_fract_z
_atom_site_fract_x
_atom_site_fract_x
_atom_site_fract_x
_atom_site_fract_y
_atom_site_fract_x
_atom_site_type_symbol
_atom_site_occupancy
_atom_site_fract_y
_atom_site_fract_x
_atom_site_fract_y
_atom_site_fract_z
_atom_site_type_symbol
_atom_site_occupancy
_atom_site_occupancy
_atom_site_symmetry_multiplicity
_atom_site_occupancy
_atom_site_symmetry_multiplicity
_atom_site_occupancy
_atom_site_occupancy
_atom_site_fract_z
loop_
_atom_site_occupancy
_atom_site_fract_z
_atom_site_fract_x
_atom_site_fract_y
_atom_site_occupancy
_symmetry_equiv_pos_as_xyz
_atom_site_fract_y
loop_
_atom_site_fract_x
_atom_site_type_symbol
_atom_site_fract_y
_atom_site_fract_y
_atom_site_occupancy
_atom_site_fract_x
_atom_site_symmetry_multiplicity
_atom_site_occupancy
_atom_site_fract_y
_atom_site_symmetry_multiplicity
_atom_site_type_symbol
_atom_site_fract_z
_atom_site_fract_z
_atom_site_occupancy
_atom_site_label
_atom_site_fract_y
_atom_site_occupancy
_atom_site_fract_x
_atom_site_fract_y
_atom_site_fract_z
_atom_site_fract_y
_atom_site_type_symbol
_atom_site_type_symbol
_atom_type_ionic_radius
_atom_site_occupancy
loop_
_atom_site_occupancy
loop_
_atom_site_symmetry_multiplicity
_atom_site_occupancy
_atom_site_fract_x
_atom_site_label
_atom_site_occupancy
_atom_site_fract_y
_atom_site_occupancy
_atom_site_fract_x
_atom_site_label
_atom_site_fract_z
_atom_site_symmetry_multiplicity
_atom_site_occupancy
_atom_site_fract_x
_atom_site_fract_x
_atom_site_symmetry_multiplicity
_atom_site_fract_y
_atom_site_fract_x
_atom_site_occupancy
_atom_site_fract_x
_atom_site_fract_x
_atom_site_symmetry_multiplicity
_atom_site_occupancy
loop_
_atom_site_symmetry_multiplicity
_atom_site_fract_z
_atom_site_fract_z
_atom_site_fract_y
_atom_type_ionic_radius
_atom_site_fract_z
_atom_site_fract_y
_atom_site_type_symbol
_atom_site_fract_y
_atom_site_occupancy
_atom_site_fract_x
_atom_site_fract_y
_atom_site_occupancy
_atom_site_symmetry_multiplicity
_atom_site_fract_y
loop_
_atom_site_fract_y
_atom_site_occupancy
_atom_site_occupancy
_atom_site_label
_atom_site_type_symbol
_atom_site_type_symbol
_atom_site_fract_y
_atom_site_occupancy
_atom_site_fract_x
_atom_site_occupancy
_atom_site_fract_x
_atom_site_fract_z
_atom_site_fract_z
loop_
_atom_site_fract_y
_atom_site_occupancy
_atom_site_fract_y
_atom_site_fract_z
_atom_site_occupancy
_atom_site_fract_z
_atom_site_fract_z
loop_
Ga 0000000000000 00
_atom_site_fract_y
_atom_site_label
