data_Na2Cl2
loop_
_atom_type_symbol
_atom_type_electronegativity
_atom_type_radius
_atom_type_ionic_radius
Na 0.9300 1.8000 1.1600
Cl 3.1600 1.0000 0.7800
_symmetry_space_group_name_H-M Cmmm
_cell_length_a 4.9452
_cell_length_b 5.1206
_cell_length_c 3.4674
_cell_angle_alpha 90.0000
_cell_angle_beta 90.0000
_cell_angle_gamma 90.0000
_symmetry_Int_Tables_number 65
_chemical_formula_structural NaCl
_chemical_formula_sum 'Na2 Cl2'
_cell_volume 87.8643
_cell_formula_units_Z 2
loop_
_symmetry_equiv_pos_site_id
_symmetry_equiv_pos_as_xyz
1 'x, y, z'
loop_
_atom_site_type_symbol
_atom_site_label
_atom_site_symmetry_multiplicity
_atom_site_fract_x
_atom_site_fract_y
_atom_site_fract_z
_atom_site_occupancy
Na Na0 2 0.0000 0.5000 0.5000 1
Cl Cl1 2 0.0000 0.0000 0.0000 1

